@<TRIPOS>MOLECULE
*****
 4 3 0 0 0
SMALL
GASTEIGER

@<TRIPOS>ATOM
      1 _CH3       -2.5496   -0.4643   -0.0000 CH3_sp3     1  UNL1        0.0343
      2 _CH2       -1.1340    0.3273   -0.0000 CH2_O       1  UNL1        0.1372
      3 O           0.2055    1.0731   -0.0000 O           1  UNL1       -0.3820
      4 H           0.5556    2.2908   -0.0000 H           1  UNL1        0.2104
@<TRIPOS>BOND
     1     1     2    1
     2     2     3    1
     3     3     4    1
